Version 4
SHEET 1 1824 680
WIRE -2032 -1088 -2096 -1088
WIRE -1904 -1088 -1968 -1088
WIRE -1792 -1088 -1824 -1088
WIRE -1776 -1088 -1792 -1088
WIRE -2096 -1072 -2096 -1088
WIRE -1088 -1024 -1184 -1024
WIRE -1792 -992 -1792 -1008
WIRE -2096 -976 -2096 -992
WIRE -1088 -976 -1088 -1024
WIRE -1088 -976 -1376 -976
WIRE -560 -976 -1088 -976
WIRE -464 -976 -560 -976
WIRE -320 -976 -368 -976
WIRE -560 -944 -560 -976
WIRE -1200 -912 -1280 -912
WIRE -1040 -912 -1200 -912
WIRE -816 -912 -1040 -912
WIRE -688 -912 -816 -912
WIRE -1040 -864 -1040 -912
WIRE -688 -864 -688 -912
WIRE -1376 -848 -1376 -976
WIRE -560 -848 -560 -864
WIRE -448 -848 -448 -928
WIRE -448 -848 -560 -848
WIRE -560 -832 -560 -848
WIRE -2000 -816 -2096 -816
WIRE -1120 -816 -1264 -816
WIRE -2096 -784 -2096 -816
WIRE -1200 -784 -1200 -912
WIRE -816 -784 -816 -912
WIRE -1264 -768 -1264 -816
WIRE -1232 -768 -1264 -768
WIRE -1040 -768 -1040 -784
WIRE -848 -768 -1040 -768
WIRE -1120 -752 -1120 -816
WIRE -1120 -752 -1168 -752
WIRE -1072 -752 -1120 -752
WIRE -1040 -752 -1040 -768
WIRE -688 -752 -688 -784
WIRE -688 -752 -784 -752
WIRE -640 -752 -688 -752
WIRE -608 -752 -640 -752
WIRE -1376 -736 -1376 -768
WIRE -1232 -736 -1376 -736
WIRE -848 -736 -880 -736
WIRE -640 -736 -640 -752
WIRE -1376 -720 -1376 -736
WIRE -816 -688 -816 -720
WIRE -1040 -656 -1040 -672
WIRE -560 -656 -560 -736
WIRE -560 -656 -640 -656
WIRE -2032 -624 -2096 -624
WIRE -1936 -624 -1952 -624
WIRE -560 -624 -560 -656
WIRE -2096 -608 -2096 -624
WIRE -1376 -608 -1376 -640
WIRE -1200 -608 -1200 -720
WIRE -1200 -608 -1376 -608
WIRE -1072 -592 -1072 -752
WIRE -992 -592 -1072 -592
WIRE -880 -592 -880 -736
WIRE -880 -592 -912 -592
WIRE -864 -592 -880 -592
WIRE -688 -592 -688 -752
WIRE -688 -592 -784 -592
WIRE -1376 -544 -1376 -608
FLAG -2096 -976 0
FLAG -1776 -1088 A2Output
IOPIN -1776 -1088 In
FLAG -1920 -816 BatteryTerminal
IOPIN -1920 -816 Out
FLAG -2096 -704 0
FLAG -1936 -624 5V
IOPIN -1936 -624 Out
FLAG -2096 -1088 VSupply
FLAG -1792 -992 0
FLAG -2096 -528 0
FLAG -1184 -1024 BatteryTerminal
IOPIN -1184 -1024 Out
FLAG -320 -976 A2Output
IOPIN -320 -976 In
FLAG -1280 -912 5V
IOPIN -1280 -912 In
FLAG -560 -624 0
FLAG -1040 -656 0
FLAG -816 -688 0
FLAG -1376 -544 0
SYMBOL voltage -2096 -1088 R0
WINDOW 123 0 0 Left 0
WINDOW 39 0 0 Left 0
WINDOW 3 26 127 Left 2
WINDOW 0 -13 54 Left 2
SYMATTR Value PWL file=PowerSupplyPWL.csv
SYMATTR InstName V1
SYMBOL res -1904 -832 R90
WINDOW 0 -7 47 VBottom 2
WINDOW 3 29 54 VTop 2
SYMATTR InstName RSenseBattery
SYMATTR Value 1µ
SYMBOL schottky -2032 -1072 R270
WINDOW 0 32 32 VTop 2
WINDOW 3 0 32 VBottom 2
SYMATTR InstName Diode_A2
SYMATTR Value 1N5819
SYMATTR Description Diode
SYMATTR Type diode
SYMBOL voltage -2096 -800 R0
WINDOW 123 0 0 Left 0
WINDOW 39 0 0 Left 0
WINDOW 3 44 52 Left 2
WINDOW 0 -13 54 Left 2
SYMATTR Value PWL file=BatteryPWL.csv
SYMATTR InstName V3
SYMBOL res -1920 -1072 R270
WINDOW 0 32 56 VTop 2
WINDOW 3 0 56 VBottom 2
SYMATTR InstName RSenseSupply
SYMATTR Value 1
SYMBOL res -1808 -1104 R0
SYMATTR InstName QLoad
SYMATTR Value 50
SYMBOL voltage -2096 -624 R0
WINDOW 123 0 0 Left 0
WINDOW 39 0 0 Left 0
SYMATTR InstName V2
SYMATTR Value 5
SYMBOL res -2048 -640 M90
WINDOW 0 -7 47 VBottom 2
WINDOW 3 29 54 VTop 2
SYMATTR InstName RSense5V
SYMATTR Value 1µ
SYMBOL pmos -368 -928 M270
SYMATTR InstName M3
SYMATTR Value irf9z24n
SYMATTR Prefix X
SYMATTR SpiceModel irf9z24n
SYMBOL nmos -608 -832 R0
SYMATTR InstName M4
SYMATTR Value 2N7002
SYMBOL OpAmps\\LTC6079 -816 -752 R0
SYMATTR InstName U1
SYMBOL res -576 -960 R0
SYMATTR InstName R_M3
SYMATTR Value 100k
SYMBOL res -656 -752 R0
SYMATTR InstName R_M4
SYMATTR Value 220k
SYMBOL res -1056 -768 R0
SYMATTR InstName R1
SYMATTR Value 34.1k
SYMBOL res -1056 -880 R0
SYMATTR InstName R2
SYMATTR Value 22k
SYMBOL res -1008 -576 R270
WINDOW 0 32 56 VTop 2
WINDOW 3 0 56 VBottom 2
SYMATTR InstName R3
SYMATTR Value 10k
SYMBOL res -880 -576 R270
WINDOW 0 32 56 VTop 2
WINDOW 3 0 56 VBottom 2
SYMATTR InstName R4
SYMATTR Value 500k
SYMBOL res -704 -880 R0
SYMATTR InstName R5
SYMATTR Value 10k
SYMBOL res -1392 -736 R0
SYMATTR InstName R6
SYMATTR Value 220k
SYMBOL res -1392 -864 R0
SYMATTR InstName R7
SYMATTR Value 220k
SYMBOL OpAmps\\LTC6079 -1200 -752 R0
SYMATTR InstName U2
TEXT -2072 -904 Left 2 !.tran 0 {transtop} 0
TEXT -2072 -936 Left 2 !.include A1cfg.txt
TEXT -2288 -1384 Left 2 ;Don't change these -- used for auto-assessments.\nYou may modify the input files (.txt and .csv) \n               while developing.\nFor submission: \n  * Only one label name per net name\n  * Use only VSupply for power\n  * Use ChargeOn to control charging\n  * Use BatteryTerminal as your battery's \n          positive terminal
TEXT -2272 -936 Left 2 ;Config file:
TEXT -2272 -904 Left 2 ;Analysis setup:
TEXT -2264 -1048 Left 2 ;Power\nsupply
TEXT -1552 -1400 Left 2 ;=============================\nREPLACE WITH YOUR DETAILS\nB.J. Edwards.,  22738002\n=============================
TEXT -960 -1320 Left 2 !.inc irf9z24n.lib
TEXT -960 -1400 Left 2 ;=============================\nIncludes (don't fiddle with this!!)\n=============================
TEXT -1152 -1208 Left 2 ;=======================================\nYour circuit goes here, these are just placeholders.\n=======================================
TEXT -1568 -288 Left 2 ;THIS CIRCUIT MIGHT TAKE A WHILE TO SIMULATE TO COMPLETION (THIS IS WHEN YOU CAN SEE YOUR WAVEFORMS FOR THE FULL 2 SECOND DURATION).\nPLEASE WAIT FOR THE SOLVER TO FINISH BEFORE SUBMITTING YOUR CIRCUIT.\n \nYou may use less or more op-amps than are presented here. Use LTC6069 op-amps in your simulations; the TLC2272 SPICE models can sometimes take quite a while to simulate.\nYou may use the 5V net to power your circuit. In practice, you will be given a voltage regulator for this purpose.
LINE Normal -1584 -1424 -1584 -480 2
LINE Normal -2368 -1424 -1584 -1424 2
LINE Normal -1584 -480 -2368 -480 2
LINE Normal -1584 -496 -1584 -496 2
LINE Normal -2368 -1424 -2368 -480 2
