Version 4
SHEET 1 1824 680
WIRE -1344 -1040 -1376 -1040
WIRE -1216 -1040 -1264 -1040
WIRE -1440 -1024 -1440 -1056
WIRE -896 -1008 -896 -1024
WIRE -1520 -992 -1520 -1040
WIRE -1296 -976 -1312 -976
WIRE -1312 -944 -1312 -976
WIRE -1440 -928 -1440 -944
WIRE -1376 -928 -1376 -1040
WIRE -1376 -928 -1440 -928
WIRE -1344 -928 -1376 -928
WIRE -1216 -912 -1216 -1040
WIRE -1216 -912 -1280 -912
WIRE -1136 -912 -1216 -912
WIRE -896 -912 -896 -928
WIRE -800 -912 -896 -912
WIRE -768 -912 -800 -912
WIRE -1520 -896 -1520 -912
WIRE -1344 -896 -1520 -896
WIRE -896 -896 -896 -912
WIRE -1520 -880 -1520 -896
WIRE -800 -880 -800 -912
WIRE -1312 -848 -1312 -880
WIRE -2320 -832 -2320 -864
WIRE -896 -800 -896 -816
WIRE -800 -800 -800 -816
WIRE -800 -800 -896 -800
WIRE -1520 -768 -1520 -800
WIRE -896 -768 -896 -800
FLAG -2320 -944 Input
IOPIN -2320 -944 Out
FLAG -1904 -1040 0
FLAG -1520 -768 0
FLAG -2320 -752 0
FLAG -2320 -1056 0
FLAG -768 -912 ToInputADC
IOPIN -768 -912 Out
FLAG -1136 -912 ToBatteryADC
IOPIN -1136 -912 Out
FLAG -1904 -1200 5V
IOPIN -1904 -1200 Out
FLAG -2320 -1216 Battery
IOPIN -2320 -1216 Out
FLAG -1520 -1040 Battery
IOPIN -1520 -1040 Out
FLAG -896 -1024 Input
IOPIN -896 -1024 Out
FLAG -1296 -976 5V
IOPIN -1296 -976 Out
FLAG -1312 -848 0
FLAG -1440 -1056 5V
IOPIN -1440 -1056 Out
FLAG -896 -768 0
SYMBOL voltage -2320 -960 R0
WINDOW 123 0 0 Left 0
WINDOW 39 0 0 Left 0
SYMATTR InstName V1
SYMATTR Value PWL file=InputPWL.csv
SYMBOL voltage -2320 -1152 R0
WINDOW 123 0 0 Left 0
WINDOW 39 0 0 Left 0
WINDOW 3 27 98 Left 2
SYMATTR Value PWL file=BatteryPWL.csv
SYMATTR InstName V2
SYMBOL voltage -1904 -1136 R0
WINDOW 123 0 0 Left 0
WINDOW 39 0 0 Left 0
SYMATTR InstName V3
SYMATTR Value 5
SYMBOL voltage -2320 -848 R0
WINDOW 123 0 0 Left 0
WINDOW 39 0 0 Left 0
SYMATTR InstName V4
SYMATTR Value PULSE(-50m 50m 0 1n 1n 0.5m 1m)
SYMBOL res -1920 -1216 R0
SYMATTR InstName RSense5V
SYMATTR Value 1µ
SYMBOL res -2336 -1232 R0
SYMATTR InstName RSenseBattery
SYMATTR Value 1µ
SYMBOL OpAmps\\LTC6079 -1312 -912 R0
SYMATTR InstName U1
SYMBOL res -1456 -1040 R0
SYMATTR InstName R1
SYMATTR Value 47k
SYMBOL res -1536 -1008 R0
SYMATTR InstName R2
SYMATTR Value 120k
SYMBOL res -1360 -1024 R270
WINDOW 0 32 56 VTop 2
WINDOW 3 0 56 VBottom 2
SYMATTR InstName R3
SYMATTR Value 100k
SYMBOL res -1536 -896 R0
SYMATTR InstName R4
SYMATTR Value 220k
SYMBOL res -912 -1024 R0
SYMATTR InstName R5
SYMATTR Value 120k
SYMBOL res -912 -912 R0
SYMATTR InstName R6
SYMATTR Value 27k
SYMBOL cap -816 -880 R0
SYMATTR InstName C1
SYMATTR Value 470n
TEXT -2152 -1360 Left 2 !.tran 0 {transtop} 0
TEXT -2152 -1392 Left 2 !.include A6cfg.txt
TEXT -2352 -1392 Left 2 ;Config file:
TEXT -2352 -1360 Left 2 ;Analysis setup:
TEXT -1552 -1400 Left 2 ;=============================\nREPLACE WITH YOUR DETAILS\nE. Stewdent.,  00024601\n=============================
TEXT -1544 -1280 Left 2 ;=======================================================\nYour circuit goes here. Use these nets.\nYou may add resistors and capacitors that are available in the undergraduate labs only.\nYou may use the op-amps. If you don't feel that they are necessary, then please remove them.\n=======================================================
LINE Normal -1584 -1424 -1584 -704 2
LINE Normal -2368 -1424 -1584 -1424 2
LINE Normal -1584 -704 -2368 -704 2
LINE Normal -1584 -720 -1584 -720 2
LINE Normal -2368 -1424 -2368 -704 2
